#
# *******************
# Calendar Parameters
# *******************
 &CAL_NML
 TheCalendar='gregorian',
 startDate_1=20000115,
 startDate_2=000000,
 calendarDumps = .TRUE.
 /
